examples/dss/constant current/2buscable/2buscable_VLN_Node.Txt

LINE-GROUND and LINE-LINE VOLTAGES BY BUS & NODE

Bus       Node    VLN (kV)   Angle      pu     Base kV    Node-Node   VLL (kV)  Angle      pu

SOURCEBUS 1       20.758 /_   -0.1   0.99874    36.000        1-2     35.955 /_   29.9   0.99874
   -      2       20.758 /_ -120.1   0.99874    36.000        2-3     35.955 /_  -90.1   0.99874
   -      3       20.758 /_  119.9   0.99874    36.000        3-1     35.955 /_  149.9   0.99874
B1 ...... 1       19.687 /_   -0.9   0.94717    36.000        1-2     34.101 /_   29.1   0.94724
   -      2       19.679 /_ -120.9    0.9468    36.000        2-3     34.066 /_  -90.9   0.94629
   -      3       19.666 /_  119.1    0.9462    36.000        3-1     34.079 /_  149.1   0.94664
